/*--------------------------------*- C++ -*----------------------------------*\
  =========                 |
  \\      /  F ield         | OpenFOAM: The Open Source CFD Toolbox
   \\    /   O peration     | Website:  https://openfoam.org
    \\  /    A nd           | Version:  8
     \\/     M anipulation  |
\*---------------------------------------------------------------------------*/


FoamFile
{
    version     2.0;
    format      ascii;
    class       dictionary;
    location    "../system";
    object      fvSolution;
}
// * * * * * * * * * * * * * * * * * * * * * * * * * * * * * * * * * * * * * //

solvers
{
    p
    {
        solver          PCG;
        preconditioner  DIC;
        tolerance       1e-6;
        relTol          0.05;
    }

    pFinal
    {
        solver          PCG;
        preconditioner  DIC;
        tolerance       1e-9;
        relTol          0;
    }

    U
    {
        solver          PBiCG;
        preconditioner  DILU;
        tolerance       1e-9;
        relTol          0;
    }

    k
    {
        solver          PBiCG;
        preconditioner  DILU;
        tolerance       1e-9;
        relTol          0;
    }
    
    omega
    {
        solver          PBiCG;
        preconditioner  DILU;
        tolerance       1e-10;
        relTol          0;
    }
}

SIMPLE
{
    nNonOthogonalCorrectors  1;
    convergence              1e-9;
    pRefCell                 0;
    pRefValue                0;
}

relaxationFactors
{
    p      0.3;
    U      0.7;
    k      0.7;
    omega  0.7;
}


// * * * * * * * * * * * * * * * * * * * * * * * * * * * * * * * * * * * * * //
