/*--------------------------------*- C++ -*----------------------------------*\
  =========                 |
  \\      /  F ield         | OpenFOAM: The Open Source CFD Toolbox
   \\    /   O peration     | Website:  https://openfoam.org
    \\  /    A nd           | Version:  8
     \\/     M anipulation  |
\*---------------------------------------------------------------------------*/




FoamFile
{
    version     2.0;
    format      ascii;
    class       polyBoundaryMesh;
    location    "constant/polyMesh";
    object      boundary;
}
// * * * * * * * * * * * * * * * * * * * * * * * * * * * * * * * * * * * * * //

6
(
    hill
    {
        type            wall;
        inGroups        1(wall);
        nFaces          636;
        startFace       40196;
    }
    top-wall
    {
        type            wall;
        inGroups        1(wall);
        nFaces          236;
        startFace       40832;
    }
    front
    {
        type            empty;
        inGroups        1(empty);
        nFaces          20161;
        startFace       41068;
    }
    back
    {
        type            empty;
        inGroups        1(empty);
        nFaces          20161;
        startFace       61229;
    }
    cyclicAMI_outlet
    {
        type            cyclicAMI;
        inGroups        1(cyclicAMI);
        nFaces          47;
        startFace       81390;
        matchTolerance  9.999999747e-05;
        transform       translational;
        neighbourPatch  cyclicAMI_inlet;
        separationVector ( -5.849999905 0 0 );
        lowWeightCorrection 0.009999999776;
    }
    cyclicAMI_inlet
    {
        type            cyclicAMI;
        inGroups        1(cyclicAMI);
        nFaces          50;
        startFace       81437;
        matchTolerance  9.999999747e-05;
        transform       translational;
        neighbourPatch  cyclicAMI_outlet;
        separationVector ( 5.849999905 0 0 );
        lowWeightCorrection 0.009999999776;
    }
)

// ************************************************************************* //
