/*--------------------------------*- C++ -*----------------------------------*\
  =========                 |
  \\      /  F ield         | OpenFOAM: The Open Source CFD Toolbox
   \\    /   O peration     | Website:  https://openfoam.org
    \\  /    A nd           | Version:  8
     \\/     M anipulation  |
\*---------------------------------------------------------------------------*/




FoamFile
{
    version     2.0;
    format      ascii;
    class       polyBoundaryMesh;
    location    "constant/polyMesh";
    object      boundary;
}
// * * * * * * * * * * * * * * * * * * * * * * * * * * * * * * * * * * * * * //

6
(
    hill
    {
        type            wall;
        inGroups        1(wall);
        nFaces          1028;
        startFace       41760;
    }
    top-wall
    {
        type            wall;
        inGroups        1(wall);
        nFaces          216;
        startFace       42788;
    }
    front
    {
        type            empty;
        inGroups        1(empty);
        nFaces          20961;
        startFace       43004;
    }
    back
    {
        type            empty;
        inGroups        1(empty);
        nFaces          20961;
        startFace       63965;
    }
    cyclicAMI_outlet
    {
        type            cyclicAMI;
        inGroups        1(cyclicAMI);
        nFaces          45;
        startFace       84926;
        matchTolerance  0.0001;
        transform       translational;
        neighbourPatch  cyclicAMI_inlet;
        separationVector ( -10.8 0 0 );
        lowWeightCorrection 0.01;
    }
    cyclicAMI_inlet
    {
        type            cyclicAMI;
        inGroups        1(cyclicAMI);
        nFaces          45;
        startFace       84971;
        matchTolerance  0.0001;
        transform       translational;
        neighbourPatch  cyclicAMI_outlet;
        separationVector ( 10.8 0 0 );
        lowWeightCorrection 0.01;
    }
)

// ************************************************************************* //
