/*--------------------------------*- C++ -*----------------------------------*\
  =========                 |
  \\      /  F ield         | OpenFOAM: The Open Source CFD Toolbox
   \\    /   O peration     | Website:  https://openfoam.org
    \\  /    A nd           | Version:  8
     \\/     M anipulation  |
\*---------------------------------------------------------------------------*/


FoamFile
{
    version     2.0;
    format      ascii;
    class       dictionary;
    location    "../system";
    object      fvSchemes;
}
// * * * * * * * * * * * * * * * * * * * * * * * * * * * * * * * * * * * * * //

ddtSchemes
{
    default         Euler;
}

gradSchemes
{
    default         Gauss linear;
    grad(U)         Gauss linear;
    grad(p)         Gauss linear;
    grad(k)         Gauss linear;
    grad(omega)     Gauss linear;
}

divSchemes
{
    default                        none;
    div(phi,U)                     Gauss linearUpwind grad(U);
    div(phi,k)                     bounded Gauss linearUpwind grad(k);
    div(phi,omega)                 bounded Gauss linearUpwind grad(omega);
    div((nuEff*dev2(T(grad(U)))))  Gauss linear;
}

laplacianSchemes
{
    default  Gauss linear corrected;
}

interpolationSchemes
{
    default         linear;
}

snGradSchemes
{
    default         corrected;
}


// ************************************************************************* //
