/*--------------------------------*- C++ -*----------------------------------*\
  =========                 |
  \\      /  F ield         | OpenFOAM: The Open Source CFD Toolbox
   \\    /   O peration     | Website:  https://openfoam.org
    \\  /    A nd           | Version:  8
     \\/     M anipulation  |
\*---------------------------------------------------------------------------*/




FoamFile
{
    version     2.0;
    format      ascii;
    class       polyBoundaryMesh;
    location    "constant/polyMesh";
    object      boundary;
}
// * * * * * * * * * * * * * * * * * * * * * * * * * * * * * * * * * * * * * //

6
(
    hill
    {
        type            wall;
        inGroups        1(wall);
        nFaces          996;
        startFace       57895;
    }
    top-wall
    {
        type            wall;
        inGroups        1(wall);
        nFaces          416;
        startFace       58891;
    }
    front
    {
        type            empty;
        inGroups        1(empty);
        nFaces          29030;
        startFace       59307;
    }
    back
    {
        type            empty;
        inGroups        1(empty);
        nFaces          29030;
        startFace       88337;
    }
    cyclicAMI_outlet
    {
        type            cyclicAMI;
        inGroups        1(cyclicAMI);
        nFaces          47;
        startFace       117367;
        matchTolerance  9.999999747e-05;
        transform       translational;
        neighbourPatch  cyclicAMI_inlet;
        separationVector ( -10.35000038 0 0 );
        lowWeightCorrection 0.009999999776;
    }
    cyclicAMI_inlet
    {
        type            cyclicAMI;
        inGroups        1(cyclicAMI);
        nFaces          50;
        startFace       117414;
        matchTolerance  9.999999747e-05;
        transform       translational;
        neighbourPatch  cyclicAMI_outlet;
        separationVector ( 10.35000038 0 0 );
        lowWeightCorrection 0.009999999776;
    }
)

// ************************************************************************* //
