/*--------------------------------*- C++ -*----------------------------------*\
  =========                 |
  \\      /  F ield         | OpenFOAM: The Open Source CFD Toolbox
   \\    /   O peration     | Website:  https://openfoam.org
    \\  /    A nd           | Version:  8
     \\/     M anipulation  |
\*---------------------------------------------------------------------------*/





FoamFile
{
    version     2.0;
    format      ascii;
    class       volVectorField;
    location    "0";
    object      U;
}
// * * * * * * * * * * * * * * * * * * * * * * * * * * * * * * * * * * * * * //

dimensions      [0 1 -1 0 0 0 0];


internalField   uniform ( 0.02018800005 0 0 );

boundaryField
{
    hill
    {
        type            wallVelocity;
        value           uniform ( 0 0 0 );
    }
    top-wall
    {
        type            wallVelocity;
        value           uniform ( 0 0 0 );
    }
    front
    {
        type            empty;
    }
    back
    {
        type            empty;
    }
    cyclicAMI_outlet
    {
        type            cyclicAMI;
        value           uniform ( 0.02018800005 0 0 );
    }
    cyclicAMI_inlet
    {
        type            cyclicAMI;
        value           uniform ( 0.02018800005 0 0 );
;
    }
}


// ************************************************************************* //
